[General]
sim-time-limit = 10000s

[Config LinkLayerTest]
network = WakeUpLinkTest

[Config ORPLTest]
network = ORPLTest

[Config ManyHopORPLDemo]
network = ManyHopNetwork

[Config IntermittentTest]
network = IntermittentDenseTest

[Config IntermittentLowRateTest]
network = IntermittentDenseTest
IntermittentDenseTest.transmittingWakeUpNode.packetGenerator.sendInterval = 20s

[Config IntermittentZeroLoadTest]
network = IntermittentDenseTest
IntermittentDenseTest.transmittingWakeUpNode.packetGenerator.sendInterval = 2000s
IntermittentDenseTest.transmittingWakeUpNode.energyGenerator.powerGeneration = 12uW
IntermittentDenseTest.node*.energyGenerator.powerGeneration = 14uW
IntermittentDenseTest.node*.generic.helloManager.poweredPacketInterval = 200s

[Config IntermittentLargeNetworkLowRate]
network = IntermittentLargeNetwork
IntermittentDenseTest.node*.energyGenerator.powerGeneration = 14uW
IntermittentDenseTest.node*.generic.helloManager.poweredPacketInterval = 20s
