[General]
network = WakeUpLinkTest
sim-time-limit = 10s
