[General]
sim-time-limit = 100s

[Config LinkLayerTest]
network = WakeUpLinkTest

[Config ORPLTest]
network = ORPLTest

[Config ManyHopORPLDemo]
network = ORPLTestMulti
