[General]
sim-time-limit = 10s

[Config LinkLayerTest]
network = WakeUpLinkTest