[General]
sim-time-limit = 10000s

[Config LinkLayerTest]
network = WakeUpLinkTest

[Config ORPLTest]
network = ORPLTest

[Config ManyHopORPLDemo]
network = ManyHopNetwork

[Config IntermittentTest]
network = IntermittentDenseTest
