[General]
sim-time-limit = 10000s

[Config LinkLayerTest]
network = WakeUpLinkTest

[Config ORPLTest]
network = ORPLTest

[Config ManyHopORPLDemo]
network = ManyHopNetwork

[Config IntermittentTest]
network = IntermittentDenseTest

[Config IntermittentLowRateTest]
network = IntermittentDenseTest
IntermittentDenseTest.transmittingWakeUpNode.packetGenerator.sendInterval = 20s
IntermittentLargeNetwork.*.wlan[*].mac.ackWaitDuration = 0.004s

[Config IntermittentZeroLoadTest]
network = IntermittentDenseTest
IntermittentDenseTest.transmittingWakeUpNode.packetGenerator.sendInterval = 2000s
IntermittentDenseTest.transmittingWakeUpNode.energyGenerator.powerGeneration = 12uW
IntermittentDenseTest.node*.energyGenerator.powerGeneration = 14uW
IntermittentDenseTest.node*.generic.helloManager.poweredPacketInterval = 200s

[Config IntermittentLargeNetworkLowRate]
network = IntermittentLargeNetwork
IntermittentDenseTest.node*.energyGenerator.powerGeneration = 14uW
IntermittentDenseTest.node*.generic.helloManager.poweredPacketInterval = 20s
IntermittentLargeNetwork.*.generic.routingTable.forwardingCost = ${W=0.0..0.6 step 0.1}EqDC
IntermittentLargeNetwork.*.wlan[*].mac.ackWaitDuration = ${ackWait = 0.0024..0.004 step 0.0004}s
