[General]
sim-time-limit = 10000s

include setupScalarAndParameterRecording.ini
include squashUnnecessaryVectorRecording.ini
include reducedPrecisionOutput.ini

# Ignore histograms from startup
warmup-period = 2000s

[Config LinkLayerTest]
network = WakeUpLinkTest

[Config ORWTest]
network = ORWTest

[Config ManyHopORWDemo]
network = ManyHopNetwork

[Config IntermittentTest]
network = IntermittentDenseTest
**.wlan[0].mac.*.result-recording-modes = default # Keep vector for small network
**.energyConsumer.*.result-recording-modes = default # Keep consumption for small network

[Config IntermittentLowRateORWTest]
extends = IntermittentTest
fingerprint = 7880-7526/zvs, 2765-c880/tplx, e1c8-e116/etlx
fingerprint-modules = "not fullPath=~**.monitor AND not fullPath=~**.packetMonitor"
IntermittentDenseTest.transmittingWakeUpNode.packetGenerator.sendInterval = 20s
**.generic.helloManager.intermittentPacketRate = 0.6
IntermittentLargeNetwork.*.wlan[*].mac.ackWaitDuration = 0.004s

[Config IntermittentLowRateTestLongDuration]
extends = IntermittentLowRateORWTest
sim-time-limit = 30000s
warmup-period = 10000s
seed-set = 0
fingerprint = 9b84-534c/zvs, 6de2-d6cf/tplx, 

[Config StopDirectTxExtraAckTest]
extends = IntermittentLowRateORWTest
sim-time-limit = 50000s
warmup-period = 10000s
fingerprint = ad06-2ec1/zvs, d271-40ef/tplx
**.mac.stopDirectTxExtraAck = ${test=true, false}

[Config IntermittentLowRateORPLTest]
extends = IntermittentTest
network = IntermittentDenseORPLTest
fingerprint = 5a91-bc76/zvs, 21ac-d352/tplx, 8f91-c71b/etlx
fingerprint-modules = "not fullPath=~**.monitor AND not fullPath=~**.packetMonitor"
IntermittentDenseORPLTest.transmittingWakeUpNode.packetGenerator.sendInterval = 20s
**.generic.helloManager.intermittentPacketRate = 0.6


[Config IntermittentZeroLoadTest]
extends = IntermittentTest
IntermittentDenseTest.transmittingWakeUpNode.packetGenerator.sendInterval = 2000s
IntermittentDenseTest.transmittingWakeUpNode.energyGenerator.powerGeneration = 12uW
IntermittentDenseTest.node*.energyGenerator.powerGeneration = 14uW
IntermittentDenseTest.node*.generic.helloManager.poweredPacketInterval = 200s